170125
  -OEChem-07162603423D

 87 89  0     1  0  0  0  0  0999 V2000
   -0.3251    0.9743   -1.1619 O   0  0  0  0  0  0  0  0  0  0  0  0
    1.2313   -0.1140    0.1934 O   0  0  0  0  0  0  0  0  0  0  0  0
    4.7041   -1.1432   -0.3487 O   0  0  0  0  0  0  0  0  0  0  0  0
   -3.7016   -0.3927   -0.7819 O   0  0  0  0  0  0  0  0  0  0  0  0
    6.1969    0.6413   -0.1732 O   0  0  0  0  0  0  0  0  0  0  0  0
   -5.3402   -0.1257    0.8575 O   0  0  0  0  0  0  0  0  0  0  0  0
    4.3350    0.9976   -2.2557 O   0  0  0  0  0  0  0  0  0  0  0  0
    1.5672    1.0138   -3.2656 O   0  0  0  0  0  0  0  0  0  0  0  0
   -0.7996    1.1441    1.6846 O   0  0  0  0  0  0  0  0  0  0  0  0
   -3.6455    1.6809    2.2258 O   0  0  0  0  0  0  0  0  0  0  0  0
    6.5265   -2.7786    1.0699 O   0  0  0  0  0  0  0  0  0  0  0  0
    9.3112   -1.8829    0.7191 O   0  0  0  0  0  0  0  0  0  0  0  0
    9.5442    0.9428    1.2823 O   0  0  0  0  0  0  0  0  0  0  0  0
    1.4670   -1.9007    2.2692 O   0  0  0  0  0  0  0  0  0  0  0  0
   -3.3338   -0.9231   -3.4539 O   0  0  0  0  0  0  0  0  0  0  0  0
    6.3341    3.3815   -0.0041 O   0  0  0  0  0  0  0  0  0  0  0  0
   -7.9756   -1.0280    1.6312 O   0  0  0  0  0  0  0  0  0  0  0  0
   -7.4183    1.3296    2.1394 O   0  0  0  0  0  0  0  0  0  0  0  0
   -6.8076   -2.1647   -1.6350 O   0  0  0  0  0  0  0  0  0  0  0  0
   -8.3021    3.5649    0.4006 O   0  0  0  0  0  0  0  0  0  0  0  0
   -4.7750   -2.9912   -0.1289 O   0  0  0  0  0  0  0  0  0  0  0  0
    3.5864   -0.2589   -0.3611 C   0  0  1  0  0  0  0  0  0  0  0  0
   -1.4117    0.3456   -0.4871 C   0  0  1  0  0  0  0  0  0  0  0  0
    3.2798    0.1480   -1.8025 C   0  0  1  0  0  0  0  0  0  0  0  0
    1.9493    0.8951   -1.8954 C   0  0  2  0  0  0  0  0  0  0  0  0
    0.8404    0.1507   -1.1517 C   0  0  2  0  0  0  0  0  0  0  0  0
    2.3818   -0.9573    0.2741 C   0  0  1  0  0  0  0  0  0  0  0  0
   -1.8349    1.2077    0.7024 C   0  0  1  0  0  0  0  0  0  0  0  0
   -2.5749    0.1602   -1.4644 C   0  0  1  0  0  0  0  0  0  0  0  0
   -3.1449    0.7066    1.3107 C   0  0  2  0  0  0  0  0  0  0  0  0
    5.7903   -0.5990    0.4002 C   0  0  2  0  0  0  0  0  0  0  0  0
   -4.2042    0.4723    0.2338 C   0  0  1  0  0  0  0  0  0  0  0  0
    6.9383   -1.6077    0.3652 C   0  0  1  0  0  0  0  0  0  0  0  0
    8.1983   -1.0391    1.0184 C   0  0  2  0  0  0  0  0  0  0  0  0
    8.5111    0.3613    0.4912 C   0  0  1  0  0  0  0  0  0  0  0  0
    7.2684    1.2530    0.5471 C   0  0  1  0  0  0  0  0  0  0  0  0
    2.6218   -1.2684    1.7480 C   0  0  0  0  0  0  0  0  0  0  0  0
   -2.2122   -0.7919   -2.5998 C   0  0  0  0  0  0  0  0  0  0  0  0
   -6.5501    0.2373    0.1838 C   0  0  1  0  0  0  0  0  0  0  0  0
    7.5247    2.6189   -0.0818 C   0  0  0  0  0  0  0  0  0  0  0  0
   -7.5625   -0.9186    0.2637 C   0  0  1  0  0  0  0  0  0  0  0  0
   -7.0217    1.5710    0.7817 C   0  0  1  0  0  0  0  0  0  0  0  0
   -7.0961   -2.2887   -0.2465 C   0  0  2  0  0  0  0  0  0  0  0  0
   -8.2232    2.1814    0.0680 C   0  0  0  0  0  0  0  0  0  0  0  0
   -5.8474   -2.8054    0.4381 C   0  0  0  0  0  0  0  0  0  0  0  0
    3.7881    0.6568    0.2147 H   0  0  0  0  0  0  0  0  0  0  0  0
   -1.1309   -0.6470   -0.1042 H   0  0  0  0  0  0  0  0  0  0  0  0
    3.2871   -0.7277   -2.4621 H   0  0  0  0  0  0  0  0  0  0  0  0
    2.0537    1.9151   -1.5069 H   0  0  0  0  0  0  0  0  0  0  0  0
    0.6031   -0.7918   -1.6634 H   0  0  0  0  0  0  0  0  0  0  0  0
    2.1599   -1.9020   -0.2408 H   0  0  0  0  0  0  0  0  0  0  0  0
   -1.9138    2.2610    0.4087 H   0  0  0  0  0  0  0  0  0  0  0  0
   -2.8705    1.1204   -1.9088 H   0  0  0  0  0  0  0  0  0  0  0  0
   -2.9747   -0.2107    1.8869 H   0  0  0  0  0  0  0  0  0  0  0  0
    5.4532   -0.4393    1.4334 H   0  0  0  0  0  0  0  0  0  0  0  0
   -4.4747    1.4357   -0.2188 H   0  0  0  0  0  0  0  0  0  0  0  0
    7.1461   -1.9161   -0.6663 H   0  0  0  0  0  0  0  0  0  0  0  0
    8.1046   -1.0335    2.1107 H   0  0  0  0  0  0  0  0  0  0  0  0
    8.8863    0.2926   -0.5372 H   0  0  0  0  0  0  0  0  0  0  0  0
    6.9439    1.4128    1.5844 H   0  0  0  0  0  0  0  0  0  0  0  0
    3.4747   -1.9393    1.8846 H   0  0  0  0  0  0  0  0  0  0  0  0
    2.7860   -0.3491    2.3201 H   0  0  0  0  0  0  0  0  0  0  0  0
   -1.3713   -0.4149   -3.1888 H   0  0  0  0  0  0  0  0  0  0  0  0
   -1.9689   -1.7871   -2.2129 H   0  0  0  0  0  0  0  0  0  0  0  0
   -6.3341    0.3974   -0.8815 H   0  0  0  0  0  0  0  0  0  0  0  0
    4.3558    1.7853   -1.6857 H   0  0  0  0  0  0  0  0  0  0  0  0
    1.4640    0.1175   -3.6284 H   0  0  0  0  0  0  0  0  0  0  0  0
   -0.7032    0.2176    1.9638 H   0  0  0  0  0  0  0  0  0  0  0  0
    7.7866    2.5176   -1.1403 H   0  0  0  0  0  0  0  0  0  0  0  0
    8.3219    3.1580    0.4388 H   0  0  0  0  0  0  0  0  0  0  0  0
   -3.7972    2.5064    1.7347 H   0  0  0  0  0  0  0  0  0  0  0  0
   -8.4485   -0.6254   -0.3132 H   0  0  0  0  0  0  0  0  0  0  0  0
   -6.2028    2.2962    0.8292 H   0  0  0  0  0  0  0  0  0  0  0  0
    6.3306   -2.5248    1.9879 H   0  0  0  0  0  0  0  0  0  0  0  0
    9.4097   -1.9222   -0.2476 H   0  0  0  0  0  0  0  0  0  0  0  0
    9.2160    1.0210    2.1944 H   0  0  0  0  0  0  0  0  0  0  0  0
    1.6391   -2.0837    3.2086 H   0  0  0  0  0  0  0  0  0  0  0  0
   -3.0829   -1.5368   -4.1653 H   0  0  0  0  0  0  0  0  0  0  0  0
   -7.8779   -3.0438   -0.1161 H   0  0  0  0  0  0  0  0  0  0  0  0
   -9.1623    1.7061    0.3687 H   0  0  0  0  0  0  0  0  0  0  0  0
   -8.1072    2.1138   -1.0181 H   0  0  0  0  0  0  0  0  0  0  0  0
    6.5180    4.2434   -0.4150 H   0  0  0  0  0  0  0  0  0  0  0  0
   -8.6613   -1.7161    1.6747 H   0  0  0  0  0  0  0  0  0  0  0  0
   -7.7004    2.1810    2.5157 H   0  0  0  0  0  0  0  0  0  0  0  0
   -5.9563   -3.0236    1.5145 H   0  0  0  0  0  0  0  0  0  0  0  0
   -6.0524   -1.5622   -1.7413 H   0  0  0  0  0  0  0  0  0  0  0  0
   -9.0706    3.9277   -0.0720 H   0  0  0  0  0  0  0  0  0  0  0  0
  1 23  1  0  0  0  0
  1 26  1  0  0  0  0
  2 26  1  0  0  0  0
  2 27  1  0  0  0  0
  3 22  1  0  0  0  0
  3 31  1  0  0  0  0
  4 29  1  0  0  0  0
  4 32  1  0  0  0  0
  5 31  1  0  0  0  0
  5 36  1  0  0  0  0
  6 32  1  0  0  0  0
  6 39  1  0  0  0  0
  7 24  1  0  0  0  0
  7 66  1  0  0  0  0
  8 25  1  0  0  0  0
  8 67  1  0  0  0  0
  9 28  1  0  0  0  0
  9 68  1  0  0  0  0
 10 30  1  0  0  0  0
 10 71  1  0  0  0  0
 11 33  1  0  0  0  0
 11 74  1  0  0  0  0
 12 34  1  0  0  0  0
 12 75  1  0  0  0  0
 13 35  1  0  0  0  0
 13 76  1  0  0  0  0
 14 37  1  0  0  0  0
 14 77  1  0  0  0  0
 15 38  1  0  0  0  0
 15 78  1  0  0  0  0
 16 40  1  0  0  0  0
 16 82  1  0  0  0  0
 17 41  1  0  0  0  0
 17 83  1  0  0  0  0
 18 42  1  0  0  0  0
 18 84  1  0  0  0  0
 19 43  1  0  0  0  0
 19 86  1  0  0  0  0
 20 44  1  0  0  0  0
 20 87  1  0  0  0  0
 21 45  2  0  0  0  0
 22 24  1  0  0  0  0
 22 27  1  0  0  0  0
 22 46  1  0  0  0  0
 23 28  1  0  0  0  0
 23 29  1  0  0  0  0
 23 47  1  0  0  0  0
 24 25  1  0  0  0  0
 24 48  1  0  0  0  0
 25 26  1  0  0  0  0
 25 49  1  0  0  0  0
 26 50  1  0  0  0  0
 27 37  1  0  0  0  0
 27 51  1  0  0  0  0
 28 30  1  0  0  0  0
 28 52  1  0  0  0  0
 29 38  1  0  0  0  0
 29 53  1  0  0  0  0
 30 32  1  0  0  0  0
 30 54  1  0  0  0  0
 31 33  1  0  0  0  0
 31 55  1  0  0  0  0
 32 56  1  0  0  0  0
 33 34  1  0  0  0  0
 33 57  1  0  0  0  0
 34 35  1  0  0  0  0
 34 58  1  0  0  0  0
 35 36  1  0  0  0  0
 35 59  1  0  0  0  0
 36 40  1  0  0  0  0
 36 60  1  0  0  0  0
 37 61  1  0  0  0  0
 37 62  1  0  0  0  0
 38 63  1  0  0  0  0
 38 64  1  0  0  0  0
 39 41  1  0  0  0  0
 39 42  1  0  0  0  0
 39 65  1  0  0  0  0
 40 69  1  0  0  0  0
 40 70  1  0  0  0  0
 41 43  1  0  0  0  0
 41 72  1  0  0  0  0
 42 44  1  0  0  0  0
 42 73  1  0  0  0  0
 43 45  1  0  0  0  0
 43 79  1  0  0  0  0
 44 80  1  0  0  0  0
 44 81  1  0  0  0  0
 45 85  1  0  0  0  0
M  END
> <PUBCHEM_COMPOUND_CID>
170125

> <PUBCHEM_CONFORMER_RMSD>
1.4

> <PUBCHEM_CONFORMER_DIVERSEORDER>
1
4
3
6
2
7
5

> <PUBCHEM_MMFF94_PARTIAL_CHARGES>
60
1 -0.56
10 -0.68
11 -0.68
12 -0.68
13 -0.68
14 -0.68
15 -0.68
16 -0.68
17 -0.68
18 -0.68
19 -0.68
2 -0.56
20 -0.68
21 -0.57
22 0.28
23 0.28
24 0.28
25 0.28
26 0.56
27 0.28
28 0.28
29 0.28
3 -0.56
30 0.28
31 0.56
32 0.56
33 0.28
34 0.28
35 0.28
36 0.28
37 0.28
38 0.28
39 0.28
4 -0.56
40 0.28
41 0.28
42 0.28
43 0.34
44 0.28
45 0.45
5 -0.56
6 -0.56
66 0.4
67 0.4
68 0.4
7 -0.68
71 0.4
74 0.4
75 0.4
76 0.4
77 0.4
78 0.4
8 -0.68
82 0.4
83 0.4
84 0.4
85 0.06
86 0.4
87 0.4
9 -0.68

> <PUBCHEM_EFFECTIVE_ROTOR_COUNT>
17.6

> <PUBCHEM_PHARMACOPHORE_FEATURES>
38
1 1 acceptor
1 10 acceptor
1 10 donor
1 11 acceptor
1 11 donor
1 12 acceptor
1 12 donor
1 13 acceptor
1 13 donor
1 14 acceptor
1 14 donor
1 15 acceptor
1 15 donor
1 16 acceptor
1 16 donor
1 17 acceptor
1 17 donor
1 18 acceptor
1 18 donor
1 19 acceptor
1 19 donor
1 2 acceptor
1 20 acceptor
1 20 donor
1 21 acceptor
1 3 acceptor
1 4 acceptor
1 5 acceptor
1 6 acceptor
1 7 acceptor
1 7 donor
1 8 acceptor
1 8 donor
1 9 acceptor
1 9 donor
6 2 22 24 25 26 27 rings
6 4 23 28 29 30 32 rings
6 5 31 33 34 35 36 rings

> <PUBCHEM_HEAVY_ATOM_COUNT>
45

> <PUBCHEM_ATOM_DEF_STEREO_COUNT>
19

> <PUBCHEM_ATOM_UDEF_STEREO_COUNT>
0

> <PUBCHEM_BOND_DEF_STEREO_COUNT>
0

> <PUBCHEM_BOND_UDEF_STEREO_COUNT>
0

> <PUBCHEM_ISOTOPIC_ATOM_COUNT>
0

> <PUBCHEM_COMPONENT_COUNT>
1

> <PUBCHEM_CACTVS_TAUTO_COUNT>
6

> <PUBCHEM_CONFORMER_ID>
0002988D00000001

> <PUBCHEM_MMFF94_ENERGY>
131.8186

> <PUBCHEM_FEATURE_SELFOVERLAP>
193.197

> <PUBCHEM_SHAPE_FINGERPRINT>
10 15 17346882251659635158
10290309 65 16056610793740037956
11135926 11 16732983116052219251
12522641 24 18409163325673257152
12857493 111 15864068779981247572
13811026 1 18342459226957617559
13947934 56 18260547840984263463
14118638 360 15697728008063952938
14394314 77 18260547810239296209
15183329 4 11602817987410911276
16067689 68 18260268555940214399
21792938 703 17604714520607934107
21792961 116 15482401876390616244
23559900 14 15069201093966230509
24771293 8 18040718108196537836
3383291 50 16370728140381034528
4625314 4 18341895177756221736
6126387 218 18261110742933870081
99344 41 18409450267347185435

> <PUBCHEM_SHAPE_MULTIPOLES>
802.82
31.24
2.81
2.27
15.32
0.2
-1.48
1.83
11.8
-1.81
0.63
-1.21
0.04
-2.96

> <PUBCHEM_SHAPE_SELFOVERLAP>
1649.113

> <PUBCHEM_SHAPE_VOLUME>
450.8

> <PUBCHEM_COORDINATE_TYPE>
2
5
10

$$$$
